.subckt FA a b ci s co
* find the sum
Xxor2_ab a b 1 xor2
Xxor2_abc 1 ci s xor2

* find the carry out 
Xnand2_ab a b 2 nand2
Xnand2_bc b ci 3 nand2
Xnand2_ac a ci 4 nand2
xnand3 2 3 4 co nand3 

.ends 
